Version 4
SHEET 1 980 680
WIRE -192 -336 -192 -368
WIRE -192 -240 -192 -256
WIRE -64 -240 -192 -240
WIRE -64 -224 -64 -240
WIRE -192 -208 -192 -240
WIRE -192 -112 -192 -128
WIRE 672 -64 672 -112
WIRE 816 -64 672 -64
WIRE 672 -16 672 -64
WIRE 672 -16 496 -16
WIRE 496 16 496 -16
WIRE 128 32 -16 32
WIRE 336 32 336 -112
WIRE 336 32 192 32
WIRE 448 32 336 32
WIRE 672 64 672 -16
WIRE 608 112 496 112
WIRE -16 144 -16 112
WIRE 672 176 672 160
WIRE 896 176 672 176
WIRE 336 192 336 32
WIRE 672 192 672 176
WIRE 896 192 896 176
WIRE 336 304 336 272
WIRE 672 304 672 272
WIRE 672 304 336 304
WIRE 896 304 896 272
WIRE 672 336 672 304
FLAG -16 224 0
FLAG -64 -224 0
FLAG -192 -368 vcc
FLAG -192 -112 -vcc
FLAG 336 -192 vcc
FLAG 672 -192 vcc
FLAG 672 336 -vcc
FLAG 896 304 0
FLAG 816 0 0
SYMBOL voltage -16 128 R0
WINDOW 123 24 124 Left 2
WINDOW 39 0 0 Left 0
SYMATTR InstName V1
SYMATTR Value ""
SYMATTR Value2 AC 1 0
SYMBOL res -32 16 R0
SYMATTR InstName R1
SYMATTR Value 10k
SYMBOL cap 192 16 R90
WINDOW 0 0 32 VBottom 2
WINDOW 3 32 32 VTop 2
SYMATTR InstName C1
SYMATTR Value 1µ
SYMBOL res 656 -208 R0
SYMATTR InstName R4
SYMATTR Value 220
SYMBOL res 320 -208 R0
SYMATTR InstName R2
SYMATTR Value 1Meg
SYMBOL res 320 176 R0
SYMATTR InstName R3
SYMATTR Value 2Meg
SYMBOL pmos 448 112 M180
SYMATTR InstName MOSFET1
SYMATTR Value T2
SYMBOL npn 608 64 R0
SYMATTR InstName Q1
SYMATTR Value T1
SYMBOL voltage -192 -352 R0
SYMATTR InstName V2
SYMATTR Value 6
SYMBOL voltage -192 -224 R0
SYMATTR InstName V3
SYMATTR Value 6
SYMBOL res 656 176 R0
SYMATTR InstName R5
SYMATTR Value 470
SYMBOL cap 800 -64 R0
SYMATTR InstName C2
SYMATTR Value 10µ
SYMBOL res 880 176 R0
SYMATTR InstName R6
SYMATTR Value 4700
TEXT -8 520 Left 2 !.model T1 NPN(bf = 100 Vaf = 100)
TEXT -8 560 Left 2 !.model T2 PMOS(kp=8m Vto=-1 W=1 L=1 gamma=0 lambda=0.01)
TEXT -8 600 Left 2 !.ac dec 100 0.1 10000000Meg
