Version 4
SHEET 1 3576 680
WIRE 64 -176 -64 -176
WIRE -64 -128 -64 -176
WIRE -64 -128 -144 -128
WIRE -64 -112 -64 -128
WIRE 64 -80 64 -176
WIRE 256 -80 64 -80
WIRE 256 -64 256 -80
WIRE 64 -32 64 -80
WIRE 720 0 688 0
WIRE 720 16 720 0
WIRE 256 32 256 16
WIRE 400 32 256 32
WIRE 480 32 400 32
WIRE 608 32 576 32
WIRE 688 32 688 0
WIRE 688 32 608 32
WIRE 64 80 64 48
WIRE 96 80 64 80
WIRE 192 80 176 80
WIRE 64 144 64 80
WIRE 256 144 256 128
WIRE 720 160 720 96
WIRE 528 176 464 176
WIRE 592 176 528 176
WIRE 464 192 464 176
WIRE 592 192 592 176
WIRE -64 272 -64 -32
WIRE 64 272 64 224
WIRE 64 272 -64 272
WIRE 256 272 256 224
WIRE 256 272 64 272
WIRE 464 272 256 272
WIRE 64 320 64 272
WIRE -144 384 -144 -128
WIRE 592 384 592 272
WIRE 592 384 -144 384
FLAG 720 160 0
FLAG 64 320 0
FLAG 256 32 c1
FLAG 256 128 e1
FLAG 176 80 b1
FLAG 400 32 e2
FLAG 608 32 c2
SYMBOL res 48 -48 R0
SYMATTR InstName R1
SYMATTR Value 170k
SYMBOL res 48 128 R0
SYMATTR InstName R2
SYMATTR Value 10000
SYMBOL res 240 128 R0
SYMATTR InstName R3
SYMATTR Value 470
SYMBOL res 240 -80 R0
SYMATTR InstName R4
SYMATTR Value 3300
SYMBOL res 704 0 R0
SYMATTR InstName R7
SYMATTR Value 4700
SYMBOL npn 192 32 R0
SYMATTR InstName Q1
SYMATTR Value BC548B
SYMBOL pnp 576 96 M270
SYMATTR InstName Q2
SYMATTR Value SST2907A
SYMBOL voltage -64 -128 R0
SYMATTR InstName V1
SYMATTR Value 20
SYMBOL res 192 64 R90
WINDOW 0 0 56 VBottom 2
WINDOW 3 32 56 VTop 2
SYMATTR InstName R5
SYMATTR Value 200
SYMBOL res 512 80 R0
SYMATTR InstName R6
SYMATTR Value 200
SYMBOL res 576 176 R0
SYMATTR InstName R8
SYMATTR Value 2200
SYMBOL res 448 176 R0
SYMATTR InstName R9
SYMATTR Value 2200
TEXT -144 440 Left 2 !.model BC548B NPN(Is=7.049f Xti=3 Eg=1.11 Vaf=62.79 Bf=250 Ise=68f Ne=1.576 Ikf=81.57m Nk=.4767 Xtb=1.5 Br=1 Isc=12.4f Nc=1.835 Ikr=3.924 Rc=.9747 Cjc=5.25p Mjc=.3147 Vjc=.5697 Fc=.5 Cje=11.5p Mje=.6715 Vje=.5 Tr=10n Tf=410.2p Itf=1.491 Xtf=40.06 Vtf=10 Vceo=30 Icrating=100m mfg=Philips)
TEXT -144 488 Left 2 !.op
