Version 4
SHEET 1 1112 680
WIRE 144 -32 112 -32
WIRE 272 -32 208 -32
WIRE 480 32 432 32
WIRE 112 48 112 -32
WIRE 144 48 112 48
WIRE 272 48 272 -32
WIRE 272 48 224 48
WIRE 0 144 -112 144
WIRE 112 144 112 48
WIRE 112 144 80 144
WIRE 144 144 112 144
WIRE 272 160 272 48
WIRE 272 160 208 160
WIRE 304 160 272 160
WIRE 480 160 480 112
WIRE 480 160 368 160
WIRE -112 176 -112 144
WIRE 144 176 112 176
WIRE 368 176 368 160
WIRE 480 192 480 160
WIRE 480 288 480 272
WIRE 480 288 432 288
WIRE -112 304 -112 256
WIRE 112 304 112 176
WIRE 112 304 -112 304
WIRE 272 304 272 240
WIRE 272 304 112 304
WIRE 112 336 112 304
FLAG 368 176 0
FLAG 432 32 vcc
FLAG 432 288 -vcc
FLAG 176 192 -vcc
FLAG 176 128 vcc
FLAG 112 336 0
FLAG 304 160 vo
FLAG -112 144 vin
SYMBOL res 96 128 R90
WINDOW 0 0 56 VBottom 2
WINDOW 3 32 56 VTop 2
SYMATTR InstName R1
SYMATTR Value 1k
SYMBOL voltage 480 16 R0
SYMATTR InstName V1
SYMATTR Value 12
SYMBOL voltage 480 176 R0
SYMATTR InstName V2
SYMATTR Value 12
SYMBOL voltage -112 160 R0
WINDOW 123 24 124 Left 2
WINDOW 39 0 0 Left 0
WINDOW 3 24 44 Left 2
SYMATTR Value2 AC 80m
SYMATTR Value PULSE(-0.2 0.2 0 0.1u 0.1u 0.5m 1m 15)
SYMATTR InstName vin
SYMBOL res 256 144 R0
SYMATTR InstName R3
SYMATTR Value 100000Meg
SYMBOL cap 208 -48 R90
WINDOW 0 0 32 VBottom 2
WINDOW 3 32 32 VTop 2
SYMATTR InstName C1
SYMATTR Value 100n
SYMBOL res 240 32 R90
WINDOW 0 0 56 VBottom 2
WINDOW 3 32 56 VTop 2
SYMATTR InstName R2
SYMATTR Value 10k
SYMBOL OpAmps\\opamp2 176 96 R0
SYMATTR InstName U2
SYMATTR Value lm741
SYMATTR SpiceModel lm741
TEXT -144 392 Left 2 !.lib "C:\\Users\\Maxi\\Desktop\\CIRCUITOS MICROELECTRONICOS\\TL1\\SPICE_MODELS\\LM741\\lm741.lib"
TEXT -144 352 Left 2 !.tran 15m
